/*--------------------------------*- C++ -*----------------------------------*\
| =========                 |                                                 |
| \\      /  F ield         | OpenFOAM: The Open Source CFD Toolbox           |
|  \\    /   O peration     | Version:  v2012                                 |
|   \\  /    A nd           | Website:  www.openfoam.com                      |
|    \\/     M anipulation  |                                                 |
\*---------------------------------------------------------------------------*/
FoamFile
{
    version     2.0;
    format      ascii;
    class       dictionary;
    object      blockMeshDict;
}
// * * * * * * * * * * * * * * * * * * * * * * * * * * * * * * * * * * * * * //

scale   0.001;

vertices
(
    (  0   0   0)
    (500   0   0)
    (500 100   0)
    (  0 100   0)
    (  0   0 100)
    (500   0 100)
    (500 100 100)
    (  0 100 100)
);


blocks
(
    hex (0 1 2 3 4 5 6 7) (50 10 10) simpleGrading (1 1 1)
);

boundary
(

    inlet
    {
        type patch;
        faces
        (
            (0 3 7 4)
        );
    }

    outlet
    {
        type patch;
        faces
        (
            (1 5 6 2)
        );
    }

    walls
    {
        type wall;
        faces
        (
            (0 1 2 3)
            (6 7 4 5)
            (0 1 5 4)
            (2 6 7 3)
        );
    }
);


// ************************************************************************* //
